/*--------------------------------*- C++ -*----------------------------------*\
| =========                 |                                                 |
| \\      /  F ield         | OpenFOAM: The Open Source CFD Toolbox           |
|  \\    /   O peration     | Version:  2.0.0                                 |
|   \\  /    A nd           | Web:      www.OpenFOAM.com                      |
|    \\/     M anipulation  |                                                 |
\*---------------------------------------------------------------------------*/
FoamFile
{
    version     2.0;
    format      ascii;
    class       dictionary;
    object      blockMeshDict;
}

// * * * * * * * * * * * * * * * * * * * * * * * * * * * * * * * * * * * * * //
scale   1;

vertices
(
    (-0.25 -0.25 -0.25)
    ( 0.25 -0.25 -0.25)  // Extended domain
    ( 0.25  0.25 -0.25)
    (-0.250  0.25 -0.25)
    (-0.250 -0.25  0.25)
    ( 0.25 -0.25  0.25)
    ( 0.25  0.25  0.25)
    (-0.250  0.25  0.25)
);
// (
//     (-10 -10 -10)
//     ( 20 -10 -10)
//     ( 20  10 -10)
//     (-10  10 -10)
//     (-10 -10  10)
//     ( 20 -10  10)
//     ( 20 10  10)
//     (-10  10  10)
// );
blocks
(
    hex (0 1 2 3 4 5 6 7) (20 20 20) simpleGrading (1 1 1)
);

boundary
(
    overset
    {
        type overset;
        faces
        (
            (3 7 6 2)
            (1 5 4 0)
            (0 4 7 3)
            (2 6 5 1)
            (0 3 2 1)
            (4 5 6 7)

        );
    }
    wing
    {
        type wall;
        faces ();
    }
    
    // symFront
    // {
    //     type symmetryPlane;
    //     faces
    //     (
    //         (4 5 6 7)
    //     );
    // }

    // symBack
    // {
    //     type symmetryPlane;
    //     faces
    //     (
    //         (0 3 2 1)
    //     );
    // }
);

mergePatchPairs
(
);


// ************************************************************************* //
