/*--------------------------------*- C++ -*----------------------------------*\
| =========                 |                                                 |
| \\      /  F ield         | OpenFOAM: The Open Source CFD Toolbox           |
|  \\    /   O peration     | Version:  v1812                                 |
|   \\  /    A nd           | Web:      www.OpenFOAM.com                      |
|    \\/     M anipulation  |                                                 |
\*---------------------------------------------------------------------------*/
FoamFile
{
    version     2.0;
    format      ascii;
    class       volScalarField;
    object      nut;
}
// * * * * * * * * * * * * * * * * * * * * * * * * * * * * * * * * * * * * * //

dimensions      [ 0 2 -1 0 0 0 0 ];

internalField   uniform 0;

boundaryField
{
    #includeEtc "caseDicts/setConstraintTypes"

    overset
    {
        type            overset;
	value		$internalField;
    }

    "(inlet|outlet)"
    {

        type            calculated;
        value           $internalField;
    }

    "(wing|topAndBottom)"
    {
        type            nutkWallFunction;
        value           $internalField;
    }
    stationaryWalls
    {
        type            nutkWallFunction;
        value           uniform 0;
    }

}

// ************************************************************************* //
